Version 4
SHEET 1 880 680
WIRE 352 128 336 128
WIRE 448 128 352 128
WIRE 576 128 528 128
WIRE 128 176 48 176
WIRE 256 176 208 176
WIRE 272 176 256 176
WIRE 336 256 336 224
WIRE 576 272 576 128
WIRE 48 304 48 176
WIRE 48 432 48 384
WIRE 336 432 336 256
WIRE 576 432 576 352
FLAG 48 432 0
FLAG 336 432 0
FLAG 576 432 0
FLAG 256 176 B
FLAG 352 128 C
FLAG 336 256 E
SYMBOL voltage 48 288 R0
WINDOW 123 0 0 Left 2
WINDOW 39 24 124 Left 2
SYMATTR InstName VBB
SYMATTR Value 5
SYMBOL voltage 576 256 R0
WINDOW 123 0 0 Left 2
WINDOW 39 0 0 Left 2
SYMATTR InstName VCC
SYMATTR Value 15
SYMBOL npn 272 128 R0
SYMATTR InstName Q1
SYMBOL res 544 112 R90
WINDOW 0 0 56 VBottom 2
WINDOW 3 32 56 VTop 2
SYMATTR InstName RC
SYMATTR Value 100
SYMBOL res 224 160 R90
WINDOW 0 0 56 VBottom 2
WINDOW 3 32 56 VTop 2
SYMATTR InstName RB
SYMATTR Value 22K
TEXT 224 472 Left 2 !.dc VCC 0 15 0.1
TEXT 296 504 Left 2 !;op
