Version 4
SHEET 1 880 680
WIRE 144 48 48 48
WIRE 288 48 208 48
WIRE 432 48 288 48
WIRE 48 128 48 48
WIRE 288 128 288 48
WIRE 432 128 432 48
WIRE 48 288 48 208
WIRE 288 288 288 192
WIRE 288 288 48 288
WIRE 432 288 432 208
WIRE 432 288 288 288
FLAG 432 48 Vout
FLAG 288 288 0
SYMBOL voltage 48 112 M0
WINDOW 39 0 0 Left 2
SYMATTR InstName V1
SYMATTR Value SINE(0 5 5K)
SYMATTR Value2 AC 5
SYMBOL diode 144 64 R270
WINDOW 0 32 32 VTop 2
WINDOW 3 0 32 VBottom 2
SYMATTR InstName D1
SYMBOL cap 272 128 R0
SYMATTR InstName C1
SYMATTR Value 100n
SYMBOL res 416 112 R0
SYMATTR InstName Rload
SYMATTR Value {Ro}
TEXT -64 320 Left 2 !.step param Ro list 100 200 470 1K 2K2 4K7 10K 22K
TEXT 152 360 Left 2 !;tran 0.001
TEXT -48 360 Left 2 !.ac dec 50 1 1e6
