Version 4
SHEET 1 880 680
WIRE 16 32 -48 32
WIRE 176 32 96 32
WIRE 368 32 176 32
WIRE 528 32 368 32
WIRE 176 128 176 32
WIRE 368 128 368 32
WIRE -48 160 -48 32
WIRE 528 208 528 32
WIRE 176 256 176 192
WIRE 368 256 368 192
WIRE -48 400 -48 240
WIRE 176 400 176 336
WIRE 176 400 -48 400
WIRE 272 400 176 400
WIRE 368 400 368 336
WIRE 368 400 272 400
WIRE 528 400 528 288
WIRE 528 400 368 400
FLAG 272 400 0
FLAG 528 32 Vout
SYMBOL diode 192 128 M0
SYMATTR InstName D1
SYMBOL diode 384 192 R180
WINDOW 0 24 64 Left 2
WINDOW 3 24 0 Left 2
SYMATTR InstName D2
SYMBOL res 512 192 R0
SYMATTR InstName Rload
SYMATTR Value 1K
SYMBOL res 112 16 R90
WINDOW 0 0 56 VBottom 2
WINDOW 3 32 56 VTop 2
SYMATTR InstName R2
SYMATTR Value 1K
SYMBOL voltage -48 144 M0
WINDOW 123 0 0 Left 2
WINDOW 39 0 0 Left 2
SYMATTR InstName V1
SYMATTR Value SINE(0 5 5K)
SYMBOL voltage 176 240 R0
WINDOW 123 0 0 Left 2
WINDOW 39 0 0 Left 2
SYMATTR InstName V2
SYMATTR Value 1.2
SYMBOL voltage 368 352 M180
WINDOW 123 0 0 Left 2
WINDOW 39 0 0 Left 2
SYMATTR InstName V3
SYMATTR Value 0.7
TEXT 184 -56 Left 2 !.tran 0 7m 5m 100m
