Version 4
SHEET 1 880 680
WIRE 176 -256 -64 -256
WIRE 528 -256 256 -256
WIRE 368 -80 256 -80
WIRE 528 -80 528 -256
WIRE 528 -80 432 -80
WIRE -64 -48 -64 -256
WIRE 256 16 256 -80
WIRE 528 16 528 -80
WIRE -64 224 -64 32
WIRE 208 224 -64 224
WIRE 256 224 256 96
WIRE 256 224 208 224
WIRE 528 224 528 96
WIRE 528 224 256 224
FLAG 528 -80 A
FLAG 208 224 0
FLAG 256 224 B
SYMBOL res 160 -240 R270
WINDOW 0 32 56 VTop 2
WINDOW 3 0 56 VBottom 2
SYMATTR InstName R1
SYMATTR Value 2200
SYMBOL res 512 0 R0
SYMATTR InstName R2
SYMATTR Value 1000
SYMBOL voltage -64 -64 R0
WINDOW 123 0 0 Left 2
WINDOW 39 0 0 Left 2
SYMATTR InstName V1
SYMATTR Value 10
SYMBOL voltage 256 0 R0
WINDOW 3 24 96 Invisible 2
WINDOW 123 24 124 Left 2
WINDOW 39 0 0 Left 2
SYMATTR InstName V2
SYMATTR Value SINE(0 2)
SYMATTR Value2 AC 2 0
SYMBOL cap 432 -96 R90
WINDOW 0 0 32 VBottom 2
WINDOW 3 32 32 VTop 2
SYMATTR InstName C1
SYMATTR Value 100n
TEXT 584 -304 Left 2 !;op
TEXT 32 -360 Left 2 !.ac dec 50 10 100000
