Version 4
SHEET 1 880 680
WIRE 320 0 224 0
WIRE 464 0 400 0
WIRE 544 0 464 0
WIRE 688 0 624 0
WIRE 224 16 224 0
WIRE 32 96 32 48
WIRE 592 160 592 144
WIRE 464 176 464 0
WIRE 560 176 464 176
WIRE 688 192 688 0
WIRE 688 192 624 192
WIRE 720 192 688 192
WIRE 336 208 224 208
WIRE 464 208 416 208
WIRE 560 208 464 208
WIRE 32 224 32 176
WIRE 32 224 -16 224
WIRE 592 240 592 224
WIRE -16 256 -16 224
WIRE 464 256 464 208
WIRE 32 288 32 224
WIRE 224 288 224 208
WIRE 464 352 464 320
WIRE 32 384 32 368
FLAG 224 368 0
FLAG 464 352 0
FLAG 224 16 0
FLAG -16 256 0
FLAG 32 48 Vcc
FLAG 592 144 Vcc
FLAG 720 192 Lpf
FLAG 32 384 Vee
FLAG 592 240 Vee
SYMBOL voltage 32 80 R0
WINDOW 123 0 0 Left 2
WINDOW 39 0 0 Left 2
SYMATTR InstName V1
SYMATTR Value 12
SYMBOL voltage 32 272 R0
WINDOW 123 0 0 Left 2
WINDOW 39 0 0 Left 2
SYMATTR InstName V2
SYMATTR Value 12
SYMBOL res 416 -16 R90
WINDOW 0 0 56 VBottom 2
WINDOW 3 32 56 VTop 2
SYMATTR InstName R1
SYMATTR Value 1K
SYMBOL res 432 192 R90
WINDOW 0 0 56 VBottom 2
WINDOW 3 32 56 VTop 2
SYMATTR InstName RL
SYMATTR Value 4,7K
SYMBOL res 640 -16 R90
WINDOW 0 0 56 VBottom 2
WINDOW 3 32 56 VTop 2
SYMATTR InstName R2
SYMATTR Value 1K
SYMBOL cap 448 256 R0
SYMATTR InstName CL
SYMATTR Value 100n
SYMBOL Opamps\\UniversalOpamp2 592 192 R0
SYMATTR InstName U1
SYMBOL voltage 224 272 R0
WINDOW 3 24 96 Invisible 2
WINDOW 123 24 124 Left 2
WINDOW 39 0 0 Left 2
SYMATTR InstName V3
SYMATTR Value SINE()
SYMATTR Value2 AC 1 0
TEXT 128 104 Left 2 !.ac dec 100000 10 100000
